190
  Marvin  12300703363D          

 15 16  0  0  0  0            999 V2000
    1.6801    0.0645    0.0155 N   0  0  0  0  0  0  0  0  0  0  0  0
    0.9898    2.1697   -0.0952 N   0  0  0  0  0  0  0  0  0  0  0  0
   -1.4081    1.6764   -0.1092 N   0  0  0  0  0  0  0  0  0  0  0  0
   -1.9348   -0.6192   -0.0055 N   0  0  0  0  0  0  0  0  0  0  0  0
   -0.2945   -2.2416    0.1279 N   0  0  0  0  0  0  0  0  0  0  0  0
    0.3423    0.0452    0.0047 C   0  0  0  0  0  0  0  0  0  0  0  0
   -0.0872    1.3703   -0.0699 C   0  0  0  0  0  0  0  0  0  0  0  0
   -0.6226   -0.9779    0.0439 C   0  0  0  0  0  0  0  0  0  0  0  0
    2.0580    1.3525   -0.0439 C   0  0  0  0  0  0  0  0  0  0  0  0
   -2.3346    0.6804   -0.0796 C   0  0  0  0  0  0  0  0  0  0  0  0
    2.2677   -0.7064    0.0551 H   0  0  0  0  0  0  0  0  0  0  0  0
    3.0283    1.6703   -0.0513 H   0  0  0  0  0  0  0  0  0  0  0  0
   -3.3288    0.9073   -0.1124 H   0  0  0  0  0  0  0  0  0  0  0  0
   -0.9540   -2.9020    0.0652 H   0  0  0  0  0  0  0  0  0  0  0  0
    0.5984   -2.4895    0.2546 H   0  0  0  0  0  0  0  0  0  0  0  0
  1  6  1  0  0  0  0
  1  9  1  0  0  0  0
  1 11  1  0  0  0  0
  2  7  1  0  0  0  0
  2  9  2  0  0  0  0
  3  7  2  0  0  0  0
  3 10  1  0  0  0  0
  4  8  1  0  0  0  0
  4 10  2  0  0  0  0
  5  8  1  0  0  0  0
  5 14  1  0  0  0  0
  5 15  1  0  0  0  0
  6  7  1  0  0  0  0
  6  8  2  0  0  0  0
  9 12  1  0  0  0  0
 10 13  1  0  0  0  0
M  END

> <PUBCHEM_BONDANNOTATIONS>
1  6  8
1  9  8
2  7  8
2  9  8
3  10  8
3  7  8
4  10  8
4  8  8
6  7  8
6  8  8

> <StdInChI>
InChI=1S/C5H5N5/c6-4-3-5(9-1-7-3)10-2-8-4/h1-2H,(H3,6,7,8,9,10)

> <StdInChIKey>
GFFGJBXGBJISGV-UHFFFAOYSA-N

> <AuxInfo>
1/1/N:9,10,6,8,7,5,1,4,2,3/rA:15nNNNNNCCCCCHHHHH/rB:;;;;s1;s2d3s6;s4s5d6;s1d2;s3d4;s1;s9;s10;s5;s5;/rC:1.6801,.0645,.0155;.9898,2.1697,-.0952;-1.4081,1.6764,-.1092;-1.9348,-.6192,-.0055;-.2945,-2.2416,.1279;.3423,.0452,.0047;-.0872,1.3703,-.0699;-.6226,-.9779,.0439;2.058,1.3525,-.0439;-2.3346,.6804,-.0796;2.2677,-.7064,.0551;3.0283,1.6703,-.0513;-3.3288,.9073,-.1124;-.954,-2.902,.0652;.5984,-2.4895,.2546;

> <Formula>
C5 H5 N5

> <Mw>
135.1267

> <SMILES>
N1([H])C([H])=NC2C1=C(N([H])[H])N=C([H])N=2

> <CSID>
185

$$$$
